Test_Network/condensed/network_18/Feeder_9/Lines.txt
New Line.LINE97 Bus1=95 Bus2=98 phases=3 Linecode=4c_185_SAC_XC Length=4.2412 Units=m
New Line.LINE129 Bus1=124 Bus2=130 phases=3 Linecode=25_SAC_PC Length=6.5162 Units=m
New Line.LINE178 Bus1=172 Bus2=179 phases=3 Linecode=25_SAC_PC Length=5.7601 Units=m
New Line.LINE294 Bus1=285 Bus2=295 phases=3 Linecode=2c_.04 Length=2.3149 Units=m
New Line.LINE297 Bus1=287 Bus2=298 phases=3 Linecode=2c_.04 Length=3.8303 Units=m
New Line.LINE332 Bus1=322 Bus2=333 phases=3 Linecode=25_SAC_PC Length=6.2125 Units=m
New Line.LINE362 Bus1=353 Bus2=363 phases=3 Linecode=2c_.04 Length=2.9253 Units=m
New Line.LINE400 Bus1=394 Bus2=401 phases=3 Linecode=25_SAC_PC Length=5.9745 Units=m
New Line.LINE416 Bus1=411 Bus2=417 phases=3 Linecode=25_SAC_PC Length=6.2336 Units=m
New Line.LINE494 Bus1=492 Bus2=495 phases=3 Linecode=4c_.06_UA Length=7.9883 Units=m
New Line.LINE507 Bus1=504 Bus2=508 phases=3 Linecode=4c_.1 Length=1.8352 Units=m
New Line.LINE533 Bus1=528 Bus2=534 phases=3 Linecode=4c_.06_UA Length=5.0081 Units=m
New Line.LINE565 Bus1=558 Bus2=566 phases=3 Linecode=2c_.04 Length=4.7784 Units=m
New Line.LINE613 Bus1=604 Bus2=614 phases=3 Linecode=2c_.04 Length=4.0267 Units=m
New Line.LINE629 Bus1=619 Bus2=630 phases=3 Linecode=3c_.06_UA Length=4.2473 Units=m
New Line.LINE647 Bus1=638 Bus2=648 phases=3 Linecode=3c_.06_UA Length=2.5558 Units=m
New Line.LINE686 Bus1=677 Bus2=687 phases=3 Linecode=2c_.0225 Length=2.3434 Units=m
New Line.LINE690 Bus1=681 Bus2=691 phases=3 Linecode=2c_.04 Length=2.4379 Units=m
New Line.LINE800 Bus1=797 Bus2=801 phases=3 Linecode=35_SAC_PC Length=0.94226 Units=m
New Line.LINE877 Bus1=873 Bus2=878 phases=3 Linecode=25_SAC_PC Length=2.3909 Units=m
New Line.LINE905 Bus1=897 Bus2=906 phases=3 Linecode=3c_185_SAC_XC Length=6.0147 Units=m
New Line.LINE912 Bus1=906 Bus2=913 phases=3 Linecode=25_SAC_XC Length=10.6374 Units=m
New Line.LINE951 Bus1=944 Bus2=952 phases=3 Linecode=25_SAC_PC Length=2.0517 Units=m
New Line.LINE1014 Bus1=1008 Bus2=1015 phases=3 Linecode=3c_185_SAC_XC Length=21.16 Units=m
New Line.LINE1130 Bus1=1122 Bus2=1131 phases=3 Linecode=35_SAC_XC Length=4.5377 Units=m
New Line.LINE1180 Bus1=1175 Bus2=1181 phases=3 Linecode=35_SAC_XC Length=5.7459 Units=m
New Line.LINE1181 Bus1=1175 Bus2=1182 phases=3 Linecode=35_SAC_XC Length=4.9602 Units=m
New Line.LINECmpd_0 Bus1=320 Bus2=492 phases=3 Linecode=4c_.1 Length=39.894203 Units=m
New Line.LINECmpd_1 Bus1=98 Bus2=322 phases=3 Linecode=25_SAC_PC Length=10.638188 Units=m
New Line.LINECmpd_2 Bus1=495 Bus2=579 phases=3 Linecode=2c_.0225 Length=9.536963 Units=m
New Line.LINECmpd_3 Bus1=1008 Bus2=1122 phases=3 Linecode=35_SAC_XC Length=5.761215 Units=m
New Line.LINECmpd_4 Bus1=98 Bus2=411 phases=3 Linecode=25_SAC_PC Length=15.67184 Units=m
New Line.LINECmpd_5 Bus1=183 Bus2=353 phases=3 Linecode=2c_.04 Length=14.53824 Units=m
New Line.LINECmpd_6 Bus1=353 Bus2=434 phases=3 Linecode=2c_.04 Length=15.9836 Units=m
New Line.LINECmpd_7 Bus1=906 Bus2=980 phases=3 Linecode=3c_185_SAC_XC Length=15.5571 Units=m
New Line.LINECmpd_8 Bus1=534 Bus2=574 phases=3 Linecode=4c_.06_UA Length=21.25207 Units=m
New Line.LINECmpd_9 Bus1=797 Bus2=851 phases=3 Linecode=35_SAC_PC Length=15.593 Units=m
New Line.LINECmpd_10 Bus1=394 Bus2=457 phases=3 Linecode=25_SAC_PC Length=15.40522 Units=m
New Line.LINECmpd_11 Bus1=495 Bus2=528 phases=3 Linecode=4c_.06_UA Length=6.71538 Units=m
New Line.LINECmpd_12 Bus1=560 Bus2=681 phases=3 Linecode=2c_.04 Length=13.17286 Units=m
New Line.LINECmpd_13 Bus1=545 Bus2=604 phases=3 Linecode=2c_.04 Length=12.66109 Units=m
New Line.LINECmpd_14 Bus1=897 Bus2=1057 phases=3 Linecode=35_SAC_XC Length=14.49193 Units=m
New Line.LINECmpd_15 Bus1=534 Bus2=818 phases=3 Linecode=25_SAC_PC Length=31.482941 Units=m
New Line.LINECmpd_16 Bus1=873 Bus2=989 phases=3 Linecode=25_SAC_PC Length=12.05924 Units=m
New Line.LINECmpd_17 Bus1=1008 Bus2=1175 phases=3 Linecode=35_SAC_XC Length=8.127173 Units=m
New Line.LINECmpd_18 Bus1=707 Bus2=897 phases=3 Linecode=3c_185_SAC_XC Length=84.911436 Units=m
New Line.LINECmpd_19 Bus1=897 Bus2=978 phases=3 Linecode=35_SAC_XC Length=9.30289 Units=m
New Line.LINECmpd_20 Bus1=579 Bus2=619 phases=3 Linecode=3c_.06_UA Length=6.8909 Units=m
New Line.LINECmpd_21 Bus1=638 Bus2=778 phases=3 Linecode=2c_.0225 Length=10.5741 Units=m
New Line.LINECmpd_22 Bus1=1015 Bus2=1173 phases=3 Linecode=35_SAC_XC Length=9.798828 Units=m
New Line.LINECmpd_23 Bus1=165 Bus2=183 phases=3 Linecode=4c_.2 Length=19.2241 Units=m
New Line.LINECmpd_24 Bus1=528 Bus2=677 phases=3 Linecode=25_SAC_PC Length=20.91847 Units=m
New Line.LINECmpd_25 Bus1=980 Bus2=1077 phases=3 Linecode=3c_185_SAC_XC Length=34.93344 Units=m
New Line.LINECmpd_26 Bus1=124 Bus2=172 phases=3 Linecode=25_SAC_PC Length=8.31246 Units=m
New Line.LINECmpd_27 Bus1=287 Bus2=403 phases=3 Linecode=2c_.0225 Length=11.88676 Units=m
New Line.LINECmpd_28 Bus1=98 Bus2=118 phases=3 Linecode=4c_.2 Length=20.25056 Units=m
New Line.LINECmpd_29 Bus1=285 Bus2=361 phases=3 Linecode=2c_.04 Length=14.51223 Units=m
New Line.LINECmpd_30 Bus1=1077 Bus2=1203 phases=3 Linecode=35_SAC_XC Length=9.60901 Units=m
New Line.LINECmpd_31 Bus1=944 Bus2=1118 phases=3 Linecode=25_SAC_PC Length=14.645898 Units=m
New Line.LINECmpd_32 Bus1=222 Bus2=372 phases=3 Linecode=2c_.0225 Length=19.06467 Units=m
New Line.LINECmpd_33 Bus1=165 Bus2=285 phases=3 Linecode=2c_.04 Length=15.00561 Units=m
New Line.LINECmpd_34 Bus1=897 Bus2=1021 phases=3 Linecode=35_SAC_XC Length=12.107744 Units=m
New Line.LINECmpd_35 Bus1=980 Bus2=1041 phases=3 Linecode=35_SAC_XC Length=10.09786 Units=m
New Line.LINECmpd_36 Bus1=40 Bus2=95 phases=3 Linecode=4c_.2 Length=30.537349 Units=m
New Line.LINECmpd_37 Bus1=619 Bus2=695 phases=3 Linecode=3c_.06_UA Length=13.52322 Units=m
New Line.LINECmpd_38 Bus1=1015 Bus2=1180 phases=3 Linecode=35_SAC_XC Length=18.385949 Units=m
New Line.LINECmpd_39 Bus1=183 Bus2=207 phases=3 Linecode=4c_.2 Length=27.1036 Units=m
New Line.LINECmpd_40 Bus1=818 Bus2=944 phases=3 Linecode=25_SAC_PC Length=15.885668 Units=m
New Line.LINECmpd_41 Bus1=172 Bus2=273 phases=3 Linecode=25_SAC_PC Length=14.5064 Units=m
New Line.LINECmpd_42 Bus1=1077 Bus2=1198 phases=3 Linecode=35_SAC_XC Length=12.911103 Units=m
New Line.LINECmpd_43 Bus1=320 Bus2=504 phases=3 Linecode=4c_.2 Length=34.01597 Units=m
New Line.LINECmpd_44 Bus1=818 Bus2=873 phases=3 Linecode=25_SAC_PC Length=5.736454 Units=m
New Line.LINECmpd_45 Bus1=207 Bus2=287 phases=3 Linecode=2c_.0225 Length=13.58171 Units=m
New Line.LINECmpd_46 Bus1=508 Bus2=542 phases=3 Linecode=2c_.0225 Length=17.56829 Units=m
New Line.LINECmpd_47 Bus1=521 Bus2=558 phases=3 Linecode=2c_.04 Length=13.91128 Units=m
New Line.LINECmpd_48 Bus1=118 Bus2=165 phases=3 Linecode=4c_.2 Length=22.31802 Units=m
New Line.LINECmpd_49 Bus1=579 Bus2=638 phases=3 Linecode=2c_.0225 Length=25.06246 Units=m
New Line.LINECmpd_50 Bus1=980 Bus2=1008 phases=3 Linecode=3c_185_SAC_XC Length=22.4063 Units=m
New Line.LINECmpd_51 Bus1=1 Bus2=40 phases=3 Linecode=4c_.2 Length=24.333598 Units=m
New Line.LINECmpd_52 Bus1=40 Bus2=124 phases=3 Linecode=25_SAC_PC Length=13.53876 Units=m
New Line.LINECmpd_53 Bus1=1077 Bus2=1205 phases=3 Linecode=35_SAC_XC Length=18.964901 Units=m
New Line.LINECmpd_54 Bus1=574 Bus2=797 phases=3 Linecode=35_SAC_PC Length=20.466807 Units=m
New Line.LINECmpd_55 Bus1=681 Bus2=713 phases=3 Linecode=2c_.04 Length=6.62685 Units=m
New Line.LINECmpd_56 Bus1=322 Bus2=394 phases=3 Linecode=25_SAC_PC Length=8.33374 Units=m
New Line.LINECmpd_57 Bus1=508 Bus2=521 phases=3 Linecode=4c_.1 Length=17.81463 Units=m
New Line.LINECmpd_58 Bus1=560 Bus2=707 phases=3 Linecode=4c_.1 Length=23.60478 Units=m
New Line.LINECmpd_59 Bus1=222 Bus2=320 phases=3 Linecode=4c_.2 Length=16.54675 Units=m
New Line.LINECmpd_60 Bus1=521 Bus2=545 phases=3 Linecode=4c_.1 Length=26.4808 Units=m
New Line.LINECmpd_61 Bus1=1077 Bus2=1191 phases=3 Linecode=35_SAC_XC Length=4.976503 Units=m
New Line.LINECmpd_62 Bus1=411 Bus2=453 phases=3 Linecode=25_SAC_PC Length=14.22858 Units=m
New Line.LINECmpd_63 Bus1=677 Bus2=795 phases=3 Linecode=25_SAC_PC Length=12.65522 Units=m
New Line.LINECmpd_64 Bus1=207 Bus2=222 phases=3 Linecode=4c_.2 Length=19.0306 Units=m
New Line.LINECmpd_65 Bus1=118 Bus2=163 phases=3 Linecode=2c_.0225 Length=18.694524 Units=m
New Line.LINECmpd_66 Bus1=604 Bus2=624 phases=3 Linecode=2c_.04 Length=11.896 Units=m
New Line.LINECmpd_67 Bus1=558 Bus2=575 phases=3 Linecode=2c_.04 Length=9.8063 Units=m
New Line.LINECmpd_68 Bus1=545 Bus2=560 phases=3 Linecode=4c_.1 Length=15.4327 Units=m
